CaseFiles/3BUS_OPF.txt
 08/19/93 UW ARCHIVE           100   1962 W IEEE 14 Bus Test Case
BUS DATA FOLLOWS                            14 ITEMS
   1 Bus 1     HV  1  1  3 1.020    0.0    100.8     43.7    112.0   -16.9     0.0  1.020     0.0     0.0   0.0   -0.1667     0
   2 Bus 2     HV  1  1  2 1.000  -5.12    504.3    -11.0    560.0     0.0     0.0  1.000    50.0   -40.0   0.0    0.0        0
   3 Bus 3     HV  1  1  2 1.000  -5.12    347.15    12.0    280.0     0.0     0.0  1.000    50.0   -40.0   0.0    0.0        0
-999 
BRANCH DATA FOLLOWS                         20 ITEMS
   1    2  1  1 1 0  0.03000   0.30000     0.0000     0     0     0    0 0  0.0       0.0 0.0    0.0     0.0    0.0   0.0
   1    3  1  1 1 0  0.01000   0.10000     0.0000     0     0     0    0 0  0.0       0.0 0.0    0.0     0.0    0.0   0.0
   2    3  1  1 1 0  0.01000   0.10000     0.0000     0     0     0    0 0  0.0       0.0 0.0    0.0     0.0    0.0   0.0
-999
LOSS ZONES FOLLOWS                     1 ITEMS
  1 IEEE 14 BUS
-99
INTERCHANGE DATA FOLLOWS                 1 ITEMS
 1    2 Bus 2     HV    0.0  999.99  IEEE14  IEEE 14 Bus Test Case
-9
TIE LINES FOLLOWS                     0 ITEMS
-999
END OF DATA